# generated using pymatgen
data_Bi2WO6
_symmetry_space_group_name_H-M   'P 1'
_cell_length_a   5.50005871
_cell_length_b   5.54305437
_cell_length_c   9.00038883
_cell_angle_alpha   107.93477741
_cell_angle_beta   90.00000000
_cell_angle_gamma   90.00000000
_symmetry_Int_Tables_number   1
_chemical_formula_structural   Bi2WO6
_chemical_formula_sum   'Bi4 W2 O12'
_cell_volume   261.06243459
_cell_formula_units_Z   2
loop_
 _symmetry_equiv_pos_site_id
 _symmetry_equiv_pos_as_xyz
  1  'x, y, z'
loop_
 _atom_site_type_symbol
 _atom_site_label
 _atom_site_symmetry_multiplicity
 _atom_site_fract_x
 _atom_site_fract_y
 _atom_site_fract_z
 _atom_site_occupancy
  O  O0  1  0.592496  0.672794  0.211728  1
  O  O1  1  0.407504  0.461066  0.788272  1
  O  O2  1  0.907504  0.172794  0.211728  1
  O  O3  1  0.092496  0.961066  0.788272  1
  O  O4  1  0.755035  0.764884  0.952493  1
  O  O5  1  0.244965  0.812390  0.047507  1
  O  O6  1  0.237966  0.480326  0.499763  1
  O  O7  1  0.762034  0.980563  0.500237  1
  O  O8  1  0.262034  0.980326  0.499763  1
  O  O9  1  0.737966  0.480563  0.500237  1
  O  O10  1  0.255035  0.312390  0.047507  1
  O  O11  1  0.744965  0.264884  0.952493  1
  W  W12  1  0.500000  0.510867  0.000000  1
  W  W13  1  0.000000  0.010867  0.000000  1
  Bi  Bi14  1  0.974984  0.628088  0.349066  1
  Bi  Bi15  1  0.025016  0.279022  0.650934  1
  Bi  Bi16  1  0.525016  0.128088  0.349066  1
  Bi  Bi17  1  0.474984  0.779022  0.650934  1
